/*--------------------------------*- C++ -*----------------------------------*\
| =========                 |                                                 |
| \\      /  F ield         | OpenFOAM: The Open Source CFD Toolbox           |
|  \\    /   O peration     | Version:  2.3.0                                 |
|   \\  /    A nd           | Web:      www.OpenFOAM.org                      |
|    \\/     M anipulation  |                                                 |
\*---------------------------------------------------------------------------*/
FoamFile
{
    version     2.0;
    format      ascii;
    class       dictionary;
    location    "system";
    object      fvSchemes;
}
// * * * * * * * * * * * * * * * * * * * * * * * * * * * * * * * * * * * * * //

ddtSchemes
{
    default         CrankNicolson 0.9;
}

gradSchemes
{
    default         Gauss linear;
    grad(U)         Gauss linear;
    grad(gamma)     Gauss linear;
}

divSchemes
{
    div(rhoPhi,U)   Gauss SFCD;
    div(phi,alpha)  Gauss interfaceCompression;
    div(phirb,alpha) Gauss linear;
    div((muEff*dev(T(grad(U))))) Gauss linear;
    div(rho*phi,U)  Gauss linear;
}

laplacianSchemes
{
    default         Gauss linear corrected;
}

interpolationSchemes
{
    default         linear;
}

snGradSchemes
{
    default         corrected;
}

fluxRequired
{
    default         no;
    pcorr;
    p_rgh;
    alpha.liquid;
}


// ************************************************************************* //
