/*--------------------------------*- C++ -*----------------------------------*\
| =========                 |                                                 |
| \\      /  F ield         | OpenFOAM: The Open Source CFD Toolbox           |
|  \\    /   O peration     | Version:  2.1.1                                 |
|   \\  /    A nd           | Web:      www.OpenFOAM.org                      |
|    \\/     M anipulation  |                                                 |
\*---------------------------------------------------------------------------*/
FoamFile
{
    version     2.0;
    format      ascii;
    class       volVectorField;
    location    "0";
    object      U;
}
// * * * * * * * * * * * * * * * * * * * * * * * * * * * * * * * * * * * * * //

dimensions      [0 1 -1 0 0 0 0];

internalField   uniform (0 0 0);

boundaryField
{
    inlet
    {
        type            flowRateInletVelocity;
        massFlowRate    constant 	0.001;
        value           uniform (0 0 0);
    }
    outlet
    {//what comes out, comes out
        type            inletOutlet;
        value           $internalField;//what comes out comes out
        inletValue      uniform (0 0 0);//nothing should go in
    }
    walls
    {
        type            fixedValue;
        value           uniform (0 0 0);
    }
    atmosphere
    {//like atmosphere 1 (might cause stability issues)
        type            pressureInletOutletVelocity;
        value           uniform (0 0 0);
    }
    plate
    {//partial slip (very small) works better for spreading
        //~ type            partialSlip;
        //~ value           uniform (0 0 0);
        //~ valueFraction   uniform 0.98;//1 - no-slip, 0 - slip
        type            fixedValue;
        value           uniform (0 0 0);
    }
    defaultFaces
    {
        type            empty;
    }
}


// ************************************************************************* //
